CM 3el Yagi for 20 meters @ 50 feet.
CE
GW	1	19	-5	3	10	5	3	10	.001
GW	2	19	-5	0	10	5	0	10	.001
GW	3	19	-5.2	-2	10	5.2	-2	10	.001
GE	1
LD	5	1	0	0	24900000
LD	5	2	0	0	24900000
LD	5	3	0	0	24900000
GN	2	0	0	0	4	0.003
EK
EX	0	2	10	0	1	0	0
FR	0	0	0	0	14.25	0
RP	0	19	73	1003	-90	0	5	5		
EN
