CM Example 1 :	Dipole in free space 	
CM See GetStarted.txt
CE
GW	1	9	0	-0.2418	5	0	0.2418	5	0.001
GE	0
GN	-1
EK
EX	0	1	5	0	1	0	0
FR	0	40	0	0	300	0.1
RP	0	37	73	1003	-180	0	5	5		
EN
