CM Test,,,,,,,,
CE
GW 1 3 -3.3 0 10 -3.249866 0 9.426961 0.001
GW 2 3 -3.249866 0 9.426961 -3.100986 0 8.8713335 0.001
GW 3 3 -3.100986 0 8.8713335 -2.857884 0 8.35 0.001
GW 4 3 -2.857884 0 8.35 -2.527947 0 7.8788009 0.001
GW 5 3 -2.527947 0 7.8788009 -2.121199 0 7.4720533 0.001
GW 6 3 -2.121199 0 7.4720533 -1.65 0 7.1421162 0.001
GW 7 3 -1.65 0 7.1421162 -1.128666 0 6.8990144 0.001
GW 8 3 -1.128666 0 6.8990144 -0.573039 0 6.7501344 0.001
GW 9 3 -0.573039 0 6.7501344 -6.06e-16 0 6.7 0.001
GW 10 3 -6.06e-16 0 6.7 0.573039 0 6.7501344 0.001
GW 11 3 0.573039 0 6.7501344 1.1286665 0 6.8990144 0.001
GW 12 3 1.1286665 0 6.8990144 1.65 0 7.1421162 0.001
GW 13 3 1.65 0 7.1421162 2.1211991 0 7.4720533 0.001
GW 14 3 2.1211991 0 7.4720533 2.5279467 0 7.8788009 0.001
GW 15 3 2.5279467 0 7.8788009 2.8578838 0 8.35 0.001
GW 16 3 2.8578838 0 8.35 3.1009856 0 8.8713335 0.001
GW 17 3 3.1009856 0 8.8713335 3.2498656 0 9.426961 0.001
GW 18 3 3.2498656 0 9.426961 3.3 0 10 0.001
GW 19 1 3.3 0 10 3.6 0 10 0.001
GW 20 3 3.6 0 10 3.6501344 0 9.426961 0.001
GW 21 3 3.6501344 0 9.426961 3.7990144 0 8.8713335 0.001
GW 22 3 3.7990144 0 8.8713335 4.0421162 0 8.35 0.001
GW 23 3 4.0421162 0 8.35 4.3720533 0 7.8788009 0.001
GW 24 3 4.3720533 0 7.8788009 4.7788009 0 7.4720533 0.001
GW 25 3 4.7788009 0 7.4720533 5.25 0 7.1421162 0.001
GW 26 3 5.25 0 7.1421162 5.7713335 0 6.8990144 0.001
GW 27 3 5.7713335 0 6.8990144 6.326961 0 6.7501344 0.001
GW 28 3 6.326961 0 6.7501344 6.9 0 6.7 0.001
GW 29 3 6.9 0 6.7 7.473039 0 6.7501344 0.001
GW 30 3 7.473039 0 6.7501344 8.0286665 0 6.8990144 0.001
GW 31 3 8.0286665 0 6.8990144 8.55 0 7.1421162 0.001
GW 32 3 8.55 0 7.1421162 9.0211991 0 7.4720533 0.001
GW 33 3 9.0211991 0 7.4720533 9.4279467 0 7.8788009 0.001
GW 34 3 9.4279467 0 7.8788009 9.7578838 0 8.35 0.001
GW 35 3 9.7578838 0 8.35 10.000986 0 8.8713335 0.001
GW 36 3 10.000986 0 8.8713335 10.149866 0 9.426961 0.001
GW 37 3 10.149866 0 9.426961 10.2 0 10 0.001
GE
GN 0 0 0 0 4 0.003
EK
EX 0 19 1 0 1 0
FR 0 1 0 0 7.2 0
XQ
FR 0 50 0 0 1 1
RP 0 37 1 1000 -90 0 5
