CM Test,,,,,,,,
CE
GW	1	3	-3.3	0	10	-3.249865585	0	9.426961014	0.001
GW	2	3	-3.249865585	0	9.426961014	-3.100985649	0	8.871333527	0.001
GW	3	3	-3.100985649	0	8.871333527	-2.857883832	0	8.35	0.001
GW	4	3	-2.857883832	0	8.35	-2.527946662	0	7.878800888	0.001
GW	5	3	-2.527946662	0	7.878800888	-2.121199112	0	7.472053338	0.001
GW	6	3	-2.121199112	0	7.472053338	-1.65	0	7.142116168	0.001
GW	7	3	-1.65	0	7.142116168	-1.128666473	0	6.899014351	0.001
GW	8	3	-1.128666473	0	6.899014351	-0.573038986	0	6.750134415	0.001
GW	9	3	-0.573038986	0	6.750134415	-6.06448E-16	0	6.7	0.001
GW	10	3	-6.06448E-16	0	6.7	0.573038986	0	6.750134415	0.001
GW	11	3	0.573038986	0	6.750134415	1.128666473	0	6.899014351	0.001
GW	12	3	1.128666473	0	6.899014351	1.65	0	7.142116168	0.001
GW	13	3	1.65	0	7.142116168	2.121199112	0	7.472053338	0.001
GW	14	3	2.121199112	0	7.472053338	2.527946662	0	7.878800888	0.001
GW	15	3	2.527946662	0	7.878800888	2.857883832	0	8.35	0.001
GW	16	3	2.857883832	0	8.35	3.100985649	0	8.871333527	0.001
GW	17	3	3.100985649	0	8.871333527	3.249865585	0	9.426961014	0.001
GW	18	3	3.249865585	0	9.426961014	3.3	0	10	0.001
GW	19	1	3.3	0	10	3.6	0	10	0.001
GW	20	3	3.6	0	10	3.650134415	0	9.426961014	0.001
GW	21	3	3.650134415	0	9.426961014	3.799014351	0	8.871333527	0.001
GW	22	3	3.799014351	0	8.871333527	4.042116168	0	8.35	0.001
GW	23	3	4.042116168	0	8.35	4.372053338	0	7.878800888	0.001
GW	24	3	4.372053338	0	7.878800888	4.778800888	0	7.472053338	0.001
GW	25	3	4.778800888	0	7.472053338	5.25	0	7.142116168	0.001
GW	26	3	5.25	0	7.142116168	5.771333527	0	6.899014351	0.001
GW	27	3	5.771333527	0	6.899014351	6.326961014	0	6.750134415	0.001
GW	28	3	6.326961014	0	6.750134415	6.9	0	6.7	0.001
GW	29	3	6.9	0	6.7	7.473038986	0	6.750134415	0.001
GW	30	3	7.473038986	0	6.750134415	8.028666473	0	6.899014351	0.001
GW	31	3	8.028666473	0	6.899014351	8.55	0	7.142116168	0.001
GW	32	3	8.55	0	7.142116168	9.021199112	0	7.472053338	0.001
GW	33	3	9.021199112	0	7.472053338	9.427946662	0	7.878800888	0.001
GW	34	3	9.427946662	0	7.878800888	9.757883832	0	8.35	0.001
GW	35	3	9.757883832	0	8.35	10.00098565	0	8.871333527	0.001
GW	36	3	10.00098565	0	8.871333527	10.14986558	0	9.426961014	0.001
GW	37	3	10.14986558	0	9.426961014	10.2	0	10	0.001
GE	1
GN	2	0	0	0	4	0.003
EK
EX	0	19	1	0	1	0	0	0
FR	0	0	0	0	7.2	0
RP	0	18	73	1003	-90	0	5	5		
EN
