CM 
CM forw: 0, 0 ; back: 0, 180
CE
SY width=40.19771
SY height=5
SY offset=1.5
GW	1	9	-(width/2)	0	height+offset	width/2	0	height+offset	.0021
GW	2	0	-(width/2)	0	height+offset	-(width/2)	0	height	.0021
GW	3	0	width/2	0	height+offset	width/2	0	height	.0021
GW	4	9	-(width/2)	0	height	width/2	0	height	.0021
GE	1
GN	2	0	0	0	4	0.003
EK
EX	0	4	5	0	1	0	0
FR,0,1,0,0,3.75
PQ -1
PT -1
