GW,0,11,-5.000,0.000,20.000,5.000,0.000,20.000,0.0021
GW,1,19,-5.000,0.000,20.000,0.000,0.000,3.000,0.0021
GW,2,19,5.000,0.000,20.000,0.000,0.000,3.000,0.0021
GW,3,13,-6.000,0.000,20.000,6.000,0.000,20.000,0.0021
GW,4,19,-6.000,0.000,20.000,0.000,0.000,3.000,0.0021
GW,5,19,6.000,0.000,20.000,0.000,0.000,3.000,0.0021
GW,6,15,-7.000,0.000,20.000,7.000,0.000,20.000,0.0021
GW,7,19,-7.000,0.000,20.000,0.000,0.000,3.000,0.0021
GW,8,19,7.000,0.000,20.000,0.000,0.000,3.000,0.0021
GW,9,17,-8.000,0.000,20.000,8.000,0.000,20.000,0.0021
GW,10,19,-8.000,0.000,20.000,0.000,0.000,3.000,0.0021
GW,11,19,8.000,0.000,20.000,0.000,0.000,3.000,0.0021
GW,12,11,-5.000,0.000,20.000,5.000,0.000,20.000,0.0021
GW,13,18,-5.000,0.000,20.000,0.000,0.000,4.000,0.0021
GW,14,18,5.000,0.000,20.000,0.000,0.000,4.000,0.0021
GW,15,13,-6.000,0.000,20.000,6.000,0.000,20.000,0.0021
GW,16,18,-6.000,0.000,20.000,0.000,0.000,4.000,0.0021
GW,17,18,6.000,0.000,20.000,0.000,0.000,4.000,0.0021
GW,18,15,-7.000,0.000,20.000,7.000,0.000,20.000,0.0021
GW,19,18,-7.000,0.000,20.000,0.000,0.000,4.000,0.0021
GW,20,18,7.000,0.000,20.000,0.000,0.000,4.000,0.0021
GW,21,17,-8.000,0.000,20.000,8.000,0.000,20.000,0.0021
GW,22,19,-8.000,0.000,20.000,0.000,0.000,4.000,0.0021
GW,23,19,8.000,0.000,20.000,0.000,0.000,4.000,0.0021
GW,24,11,-5.000,0.000,20.000,5.000,0.000,20.000,0.0021
GW,25,17,-5.000,0.000,20.000,0.000,0.000,5.000,0.0021
GW,26,17,5.000,0.000,20.000,0.000,0.000,5.000,0.0021
GW,27,13,-6.000,0.000,20.000,6.000,0.000,20.000,0.0021
GW,28,17,-6.000,0.000,20.000,0.000,0.000,5.000,0.0021
GW,29,17,6.000,0.000,20.000,0.000,0.000,5.000,0.0021
GW,30,15,-7.000,0.000,20.000,7.000,0.000,20.000,0.0021
GW,31,17,-7.000,0.000,20.000,0.000,0.000,5.000,0.0021
GW,32,17,7.000,0.000,20.000,0.000,0.000,5.000,0.0021
GW,33,17,-8.000,0.000,20.000,8.000,0.000,20.000,0.0021
GW,34,18,-8.000,0.000,20.000,0.000,0.000,5.000,0.0021
GW,35,18,8.000,0.000,20.000,0.000,0.000,5.000,0.0021
GW,36,11,-5.000,0.000,20.000,5.000,0.000,20.000,0.0021
GW,37,16,-5.000,0.000,20.000,0.000,0.000,6.000,0.0021
GW,38,16,5.000,0.000,20.000,0.000,0.000,6.000,0.0021
GW,39,13,-6.000,0.000,20.000,6.000,0.000,20.000,0.0021
GW,40,16,-6.000,0.000,20.000,0.000,0.000,6.000,0.0021
GW,41,16,6.000,0.000,20.000,0.000,0.000,6.000,0.0021
GW,42,15,-7.000,0.000,20.000,7.000,0.000,20.000,0.0021
GW,43,16,-7.000,0.000,20.000,0.000,0.000,6.000,0.0021
GW,44,16,7.000,0.000,20.000,0.000,0.000,6.000,0.0021
GW,45,17,-8.000,0.000,20.000,8.000,0.000,20.000,0.0021
GW,46,17,-8.000,0.000,20.000,0.000,0.000,6.000,0.0021
GW,47,17,8.000,0.000,20.000,0.000,0.000,6.000,0.0021
GW,48,11,-5.000,0.000,20.000,5.000,0.000,20.000,0.0021
GW,49,15,-5.000,0.000,20.000,0.000,0.000,7.000,0.0021
GW,50,15,5.000,0.000,20.000,0.000,0.000,7.000,0.0021
GW,51,13,-6.000,0.000,20.000,6.000,0.000,20.000,0.0021
GW,52,15,-6.000,0.000,20.000,0.000,0.000,7.000,0.0021
GW,53,15,6.000,0.000,20.000,0.000,0.000,7.000,0.0021
GW,54,15,-7.000,0.000,20.000,7.000,0.000,20.000,0.0021
GW,55,15,-7.000,0.000,20.000,0.000,0.000,7.000,0.0021
GW,56,15,7.000,0.000,20.000,0.000,0.000,7.000,0.0021
GW,57,17,-8.000,0.000,20.000,8.000,0.000,20.000,0.0021
GW,58,16,-8.000,0.000,20.000,0.000,0.000,7.000,0.0021
GW,59,16,8.000,0.000,20.000,0.000,0.000,7.000,0.0021
GW,60,11,-5.000,0.000,20.000,5.000,0.000,20.000,0.0021
GW,61,14,-5.000,0.000,20.000,0.000,0.000,8.000,0.0021
GW,62,14,5.000,0.000,20.000,0.000,0.000,8.000,0.0021
GW,63,13,-6.000,0.000,20.000,6.000,0.000,20.000,0.0021
GW,64,14,-6.000,0.000,20.000,0.000,0.000,8.000,0.0021
GW,65,14,6.000,0.000,20.000,0.000,0.000,8.000,0.0021
GW,66,15,-7.000,0.000,20.000,7.000,0.000,20.000,0.0021
GW,67,14,-7.000,0.000,20.000,0.000,0.000,8.000,0.0021
GW,68,14,7.000,0.000,20.000,0.000,0.000,8.000,0.0021
GW,69,17,-8.000,0.000,20.000,8.000,0.000,20.000,0.0021
GW,70,15,-8.000,0.000,20.000,0.000,0.000,8.000,0.0021
GW,71,15,8.000,0.000,20.000,0.000,0.000,8.000,0.0021
GW,72,11,-5.000,0.000,20.000,5.000,0.000,20.000,0.0021
GW,73,13,-5.000,0.000,20.000,0.000,0.000,9.000,0.0021
GW,74,13,5.000,0.000,20.000,0.000,0.000,9.000,0.0021
GW,75,13,-6.000,0.000,20.000,6.000,0.000,20.000,0.0021
GW,76,13,-6.000,0.000,20.000,0.000,0.000,9.000,0.0021
GW,77,13,6.000,0.000,20.000,0.000,0.000,9.000,0.0021
GW,78,15,-7.000,0.000,20.000,7.000,0.000,20.000,0.0021
GW,79,13,-7.000,0.000,20.000,0.000,0.000,9.000,0.0021
GW,80,13,7.000,0.000,20.000,0.000,0.000,9.000,0.0021
GW,81,17,-8.000,0.000,20.000,8.000,0.000,20.000,0.0021
GW,82,14,-8.000,0.000,20.000,0.000,0.000,9.000,0.0021
GW,83,14,8.000,0.000,20.000,0.000,0.000,9.000,0.0021
GW,84,11,-5.000,0.000,20.000,5.000,0.000,20.000,0.0021
GW,85,12,-5.000,0.000,20.000,0.000,0.000,10.000,0.0021
GW,86,12,5.000,0.000,20.000,0.000,0.000,10.000,0.0021
GW,87,13,-6.000,0.000,20.000,6.000,0.000,20.000,0.0021
GW,88,12,-6.000,0.000,20.000,0.000,0.000,10.000,0.0021
GW,89,12,6.000,0.000,20.000,0.000,0.000,10.000,0.0021
GW,90,15,-7.000,0.000,20.000,7.000,0.000,20.000,0.0021
GW,91,13,-7.000,0.000,20.000,0.000,0.000,10.000,0.0021
GW,92,13,7.000,0.000,20.000,0.000,0.000,10.000,0.0021
GW,93,17,-8.000,0.000,20.000,8.000,0.000,20.000,0.0021
GW,94,13,-8.000,0.000,20.000,0.000,0.000,10.000,0.0021
GW,95,13,8.000,0.000,20.000,0.000,0.000,10.000,0.0021
GW,96,11,-5.000,0.000,20.000,5.000,0.000,20.000,0.0021
GW,97,11,-5.000,0.000,20.000,0.000,0.000,11.000,0.0021
GW,98,11,5.000,0.000,20.000,0.000,0.000,11.000,0.0021
GW,99,13,-6.000,0.000,20.000,6.000,0.000,20.000,0.0021
GW,100,11,-6.000,0.000,20.000,0.000,0.000,11.000,0.0021
GW,101,11,6.000,0.000,20.000,0.000,0.000,11.000,0.0021
GW,102,15,-7.000,0.000,20.000,7.000,0.000,20.000,0.0021
GW,103,12,-7.000,0.000,20.000,0.000,0.000,11.000,0.0021
GW,104,12,7.000,0.000,20.000,0.000,0.000,11.000,0.0021
GW,105,17,-8.000,0.000,20.000,8.000,0.000,20.000,0.0021
GW,106,12,-8.000,0.000,20.000,0.000,0.000,11.000,0.0021
GW,107,12,8.000,0.000,20.000,0.000,0.000,11.000,0.0021
GW,108,11,-5.000,0.000,20.000,5.000,0.000,20.000,0.0021
GW,109,10,-5.000,0.000,20.000,0.000,0.000,12.000,0.0021
GW,110,10,5.000,0.000,20.000,0.000,0.000,12.000,0.0021
GW,111,13,-6.000,0.000,20.000,6.000,0.000,20.000,0.0021
GW,112,10,-6.000,0.000,20.000,0.000,0.000,12.000,0.0021
GW,113,10,6.000,0.000,20.000,0.000,0.000,12.000,0.0021
GW,114,15,-7.000,0.000,20.000,7.000,0.000,20.000,0.0021
GW,115,11,-7.000,0.000,20.000,0.000,0.000,12.000,0.0021
GW,116,11,7.000,0.000,20.000,0.000,0.000,12.000,0.0021
GW,117,17,-8.000,0.000,20.000,8.000,0.000,20.000,0.0021
GW,118,12,-8.000,0.000,20.000,0.000,0.000,12.000,0.0021
GW,119,12,8.000,0.000,20.000,0.000,0.000,12.000,0.0021
GW,120,11,-5.000,0.000,20.000,5.000,0.000,20.000,0.0021
GW,121,9,-5.000,0.000,20.000,0.000,0.000,13.000,0.0021
GW,122,9,5.000,0.000,20.000,0.000,0.000,13.000,0.0021
GW,123,13,-6.000,0.000,20.000,6.000,0.000,20.000,0.0021
GW,124,9,-6.000,0.000,20.000,0.000,0.000,13.000,0.0021
GW,125,9,6.000,0.000,20.000,0.000,0.000,13.000,0.0021
GW,126,15,-7.000,0.000,20.000,7.000,0.000,20.000,0.0021
GW,127,10,-7.000,0.000,20.000,0.000,0.000,13.000,0.0021
GW,128,10,7.000,0.000,20.000,0.000,0.000,13.000,0.0021
GW,129,17,-8.000,0.000,20.000,8.000,0.000,20.000,0.0021
GW,130,11,-8.000,0.000,20.000,0.000,0.000,13.000,0.0021
GW,131,11,8.000,0.000,20.000,0.000,0.000,13.000,0.0021
GW,132,11,-5.000,0.000,20.000,5.000,0.000,20.000,0.0021
GW,133,8,-5.000,0.000,20.000,0.000,0.000,14.000,0.0021
GW,134,8,5.000,0.000,20.000,0.000,0.000,14.000,0.0021
GW,135,13,-6.000,0.000,20.000,6.000,0.000,20.000,0.0021
GW,136,9,-6.000,0.000,20.000,0.000,0.000,14.000,0.0021
GW,137,9,6.000,0.000,20.000,0.000,0.000,14.000,0.0021
GW,138,15,-7.000,0.000,20.000,7.000,0.000,20.000,0.0021
GW,139,9,-7.000,0.000,20.000,0.000,0.000,14.000,0.0021
GW,140,9,7.000,0.000,20.000,0.000,0.000,14.000,0.0021
GW,141,17,-8.000,0.000,20.000,8.000,0.000,20.000,0.0021
GW,142,10,-8.000,0.000,20.000,0.000,0.000,14.000,0.0021
GW,143,10,8.000,0.000,20.000,0.000,0.000,14.000,0.0021
GW,144,11,-5.000,0.000,20.000,5.000,0.000,20.000,0.0021
GW,145,7,-5.000,0.000,20.000,0.000,0.000,15.000,0.0021
GW,146,7,5.000,0.000,20.000,0.000,0.000,15.000,0.0021
GW,147,13,-6.000,0.000,20.000,6.000,0.000,20.000,0.0021
GW,148,8,-6.000,0.000,20.000,0.000,0.000,15.000,0.0021
GW,149,8,6.000,0.000,20.000,0.000,0.000,15.000,0.0021
GW,150,15,-7.000,0.000,20.000,7.000,0.000,20.000,0.0021
GW,151,9,-7.000,0.000,20.000,0.000,0.000,15.000,0.0021
GW,152,9,7.000,0.000,20.000,0.000,0.000,15.000,0.0021
GW,153,17,-8.000,0.000,20.000,8.000,0.000,20.000,0.0021
GW,154,10,-8.000,0.000,20.000,0.000,0.000,15.000,0.0021
GW,155,10,8.000,0.000,20.000,0.000,0.000,15.000,0.0021
GW,156,11,-5.000,0.000,20.000,5.000,0.000,20.000,0.0021
GW,157,7,-5.000,0.000,20.000,0.000,0.000,16.000,0.0021
GW,158,7,5.000,0.000,20.000,0.000,0.000,16.000,0.0021
GW,159,13,-6.000,0.000,20.000,6.000,0.000,20.000,0.0021
GW,160,7,-6.000,0.000,20.000,0.000,0.000,16.000,0.0021
GW,161,7,6.000,0.000,20.000,0.000,0.000,16.000,0.0021
GW,162,15,-7.000,0.000,20.000,7.000,0.000,20.000,0.0021
GW,163,8,-7.000,0.000,20.000,0.000,0.000,16.000,0.0021
GW,164,8,7.000,0.000,20.000,0.000,0.000,16.000,0.0021
GW,165,17,-8.000,0.000,20.000,8.000,0.000,20.000,0.0021
GW,166,9,-8.000,0.000,20.000,0.000,0.000,16.000,0.0021
GW,167,9,8.000,0.000,20.000,0.000,0.000,16.000,0.0021
GW,168,11,-5.000,0.000,20.000,5.000,0.000,20.000,0.0021
GW,169,6,-5.000,0.000,20.000,0.000,0.000,17.000,0.0021
GW,170,6,5.000,0.000,20.000,0.000,0.000,17.000,0.0021
GW,171,13,-6.000,0.000,20.000,6.000,0.000,20.000,0.0021
GW,172,7,-6.000,0.000,20.000,0.000,0.000,17.000,0.0021
GW,173,7,6.000,0.000,20.000,0.000,0.000,17.000,0.0021
GW,174,15,-7.000,0.000,20.000,7.000,0.000,20.000,0.0021
GW,175,8,-7.000,0.000,20.000,0.000,0.000,17.000,0.0021
GW,176,8,7.000,0.000,20.000,0.000,0.000,17.000,0.0021
GW,177,17,-8.000,0.000,20.000,8.000,0.000,20.000,0.0021
GW,178,9,-8.000,0.000,20.000,0.000,0.000,17.000,0.0021
GW,179,9,8.000,0.000,20.000,0.000,0.000,17.000,0.0021
GW,180,11,-5.000,0.000,20.000,5.000,0.000,20.000,0.0021
GW,181,5,-5.000,0.000,20.000,0.000,0.000,18.000,0.0021
GW,182,5,5.000,0.000,20.000,0.000,0.000,18.000,0.0021
GW,183,13,-6.000,0.000,20.000,6.000,0.000,20.000,0.0021
GW,184,6,-6.000,0.000,20.000,0.000,0.000,18.000,0.0021
GW,185,6,6.000,0.000,20.000,0.000,0.000,18.000,0.0021
GW,186,15,-7.000,0.000,20.000,7.000,0.000,20.000,0.0021
GW,187,7,-7.000,0.000,20.000,0.000,0.000,18.000,0.0021
GW,188,7,7.000,0.000,20.000,0.000,0.000,18.000,0.0021
GW,189,17,-8.000,0.000,20.000,8.000,0.000,20.000,0.0021
GW,190,8,-8.000,0.000,20.000,0.000,0.000,18.000,0.0021
GW,191,8,8.000,0.000,20.000,0.000,0.000,18.000,0.0021
GW,192,11,-5.000,0.000,20.000,5.000,0.000,20.000,0.0021
GW,193,5,-5.000,0.000,20.000,0.000,0.000,19.000,0.0021
GW,194,5,5.000,0.000,20.000,0.000,0.000,19.000,0.0021
GW,195,13,-6.000,0.000,20.000,6.000,0.000,20.000,0.0021
GW,196,6,-6.000,0.000,20.000,0.000,0.000,19.000,0.0021
GW,197,6,6.000,0.000,20.000,0.000,0.000,19.000,0.0021
GW,198,15,-7.000,0.000,20.000,7.000,0.000,20.000,0.0021
GW,199,7,-7.000,0.000,20.000,0.000,0.000,19.000,0.0021
GW,200,7,7.000,0.000,20.000,0.000,0.000,19.000,0.0021
GW,201,17,-8.000,0.000,20.000,8.000,0.000,20.000,0.0021
GW,202,8,-8.000,0.000,20.000,0.000,0.000,19.000,0.0021
GW,203,8,8.000,0.000,20.000,0.000,0.000,19.000,0.0021
GW,204,11,-5.000,0.000,20.000,5.000,0.000,20.000,0.0021
GW,205,5,-5.000,0.000,20.000,0.000,0.000,21.000,0.0021
GW,206,5,5.000,0.000,20.000,0.000,0.000,21.000,0.0021
GW,207,13,-6.000,0.000,20.000,6.000,0.000,20.000,0.0021
GW,208,6,-6.000,0.000,20.000,0.000,0.000,21.000,0.0021
GW,209,6,6.000,0.000,20.000,0.000,0.000,21.000,0.0021
GW,210,15,-7.000,0.000,20.000,7.000,0.000,20.000,0.0021
GW,211,7,-7.000,0.000,20.000,0.000,0.000,21.000,0.0021
GW,212,7,7.000,0.000,20.000,0.000,0.000,21.000,0.0021
GW,213,17,-8.000,0.000,20.000,8.000,0.000,20.000,0.0021
GW,214,8,-8.000,0.000,20.000,0.000,0.000,21.000,0.0021
GW,215,8,8.000,0.000,20.000,0.000,0.000,21.000,0.0021
GW,216,11,-5.000,0.000,20.000,5.000,0.000,20.000,0.0021
GW,217,5,-5.000,0.000,20.000,0.000,0.000,22.000,0.0021
GW,218,5,5.000,0.000,20.000,0.000,0.000,22.000,0.0021
GW,219,13,-6.000,0.000,20.000,6.000,0.000,20.000,0.0021
GW,220,6,-6.000,0.000,20.000,0.000,0.000,22.000,0.0021
GW,221,6,6.000,0.000,20.000,0.000,0.000,22.000,0.0021
GW,222,15,-7.000,0.000,20.000,7.000,0.000,20.000,0.0021
GW,223,7,-7.000,0.000,20.000,0.000,0.000,22.000,0.0021
GW,224,7,7.000,0.000,20.000,0.000,0.000,22.000,0.0021
GW,225,17,-8.000,0.000,20.000,8.000,0.000,20.000,0.0021
GW,226,8,-8.000,0.000,20.000,0.000,0.000,22.000,0.0021
GW,227,8,8.000,0.000,20.000,0.000,0.000,22.000,0.0021
GW,228,11,-5.000,0.000,20.000,5.000,0.000,20.000,0.0021
GW,229,6,-5.000,0.000,20.000,0.000,0.000,23.000,0.0021
GW,230,6,5.000,0.000,20.000,0.000,0.000,23.000,0.0021
GW,231,13,-6.000,0.000,20.000,6.000,0.000,20.000,0.0021
GW,232,7,-6.000,0.000,20.000,0.000,0.000,23.000,0.0021
GW,233,7,6.000,0.000,20.000,0.000,0.000,23.000,0.0021
GW,234,15,-7.000,0.000,20.000,7.000,0.000,20.000,0.0021
GW,235,8,-7.000,0.000,20.000,0.000,0.000,23.000,0.0021
GW,236,8,7.000,0.000,20.000,0.000,0.000,23.000,0.0021
GW,237,17,-8.000,0.000,20.000,8.000,0.000,20.000,0.0021
GW,238,9,-8.000,0.000,20.000,0.000,0.000,23.000,0.0021
GW,239,9,8.000,0.000,20.000,0.000,0.000,23.000,0.0021
GW,240,11,-5.000,0.000,20.000,5.000,0.000,20.000,0.0021
GW,241,7,-5.000,0.000,20.000,0.000,0.000,24.000,0.0021
GW,242,7,5.000,0.000,20.000,0.000,0.000,24.000,0.0021
GW,243,13,-6.000,0.000,20.000,6.000,0.000,20.000,0.0021
GW,244,7,-6.000,0.000,20.000,0.000,0.000,24.000,0.0021
GW,245,7,6.000,0.000,20.000,0.000,0.000,24.000,0.0021
GW,246,15,-7.000,0.000,20.000,7.000,0.000,20.000,0.0021
GW,247,8,-7.000,0.000,20.000,0.000,0.000,24.000,0.0021
GW,248,8,7.000,0.000,20.000,0.000,0.000,24.000,0.0021
GW,249,17,-8.000,0.000,20.000,8.000,0.000,20.000,0.0021
GW,250,9,-8.000,0.000,20.000,0.000,0.000,24.000,0.0021
GW,251,9,8.000,0.000,20.000,0.000,0.000,24.000,0.0021
GW,252,11,-5.000,0.000,20.000,5.000,0.000,20.000,0.0021
GW,253,7,-5.000,0.000,20.000,0.000,0.000,25.000,0.0021
GW,254,7,5.000,0.000,20.000,0.000,0.000,25.000,0.0021
GW,255,13,-6.000,0.000,20.000,6.000,0.000,20.000,0.0021
GW,256,8,-6.000,0.000,20.000,0.000,0.000,25.000,0.0021
GW,257,8,6.000,0.000,20.000,0.000,0.000,25.000,0.0021
GW,258,15,-7.000,0.000,20.000,7.000,0.000,20.000,0.0021
GW,259,9,-7.000,0.000,20.000,0.000,0.000,25.000,0.0021
GW,260,9,7.000,0.000,20.000,0.000,0.000,25.000,0.0021
GW,261,17,-8.000,0.000,20.000,8.000,0.000,20.000,0.0021
GW,262,10,-8.000,0.000,20.000,0.000,0.000,25.000,0.0021
GW,263,10,8.000,0.000,20.000,0.000,0.000,25.000,0.0021
GW,264,11,-5.000,0.000,20.000,5.000,0.000,20.000,0.0021
GW,265,8,-5.000,0.000,20.000,0.000,0.000,26.000,0.0021
GW,266,8,5.000,0.000,20.000,0.000,0.000,26.000,0.0021
GW,267,13,-6.000,0.000,20.000,6.000,0.000,20.000,0.0021
GW,268,9,-6.000,0.000,20.000,0.000,0.000,26.000,0.0021
GW,269,9,6.000,0.000,20.000,0.000,0.000,26.000,0.0021
GW,270,15,-7.000,0.000,20.000,7.000,0.000,20.000,0.0021
GW,271,9,-7.000,0.000,20.000,0.000,0.000,26.000,0.0021
GW,272,9,7.000,0.000,20.000,0.000,0.000,26.000,0.0021
GW,273,17,-8.000,0.000,20.000,8.000,0.000,20.000,0.0021
GW,274,10,-8.000,0.000,20.000,0.000,0.000,26.000,0.0021
GW,275,10,8.000,0.000,20.000,0.000,0.000,26.000,0.0021
GW,276,11,-5.000,0.000,20.000,5.000,0.000,20.000,0.0021
GW,277,9,-5.000,0.000,20.000,0.000,0.000,27.000,0.0021
GW,278,9,5.000,0.000,20.000,0.000,0.000,27.000,0.0021
GW,279,13,-6.000,0.000,20.000,6.000,0.000,20.000,0.0021
GW,280,9,-6.000,0.000,20.000,0.000,0.000,27.000,0.0021
GW,281,9,6.000,0.000,20.000,0.000,0.000,27.000,0.0021
GW,282,15,-7.000,0.000,20.000,7.000,0.000,20.000,0.0021
GW,283,10,-7.000,0.000,20.000,0.000,0.000,27.000,0.0021
GW,284,10,7.000,0.000,20.000,0.000,0.000,27.000,0.0021
GW,285,17,-8.000,0.000,20.000,8.000,0.000,20.000,0.0021
GW,286,11,-8.000,0.000,20.000,0.000,0.000,27.000,0.0021
GW,287,11,8.000,0.000,20.000,0.000,0.000,27.000,0.0021
GW,288,11,-5.000,0.000,20.000,5.000,0.000,20.000,0.0021
GW,289,10,-5.000,0.000,20.000,0.000,0.000,28.000,0.0021
GW,290,10,5.000,0.000,20.000,0.000,0.000,28.000,0.0021
GW,291,13,-6.000,0.000,20.000,6.000,0.000,20.000,0.0021
GW,292,10,-6.000,0.000,20.000,0.000,0.000,28.000,0.0021
GW,293,10,6.000,0.000,20.000,0.000,0.000,28.000,0.0021
GW,294,15,-7.000,0.000,20.000,7.000,0.000,20.000,0.0021
GW,295,11,-7.000,0.000,20.000,0.000,0.000,28.000,0.0021
GW,296,11,7.000,0.000,20.000,0.000,0.000,28.000,0.0021
GW,297,17,-8.000,0.000,20.000,8.000,0.000,20.000,0.0021
GW,298,12,-8.000,0.000,20.000,0.000,0.000,28.000,0.0021
GW,299,12,8.000,0.000,20.000,0.000,0.000,28.000,0.0021
GW,300,11,-5.000,0.000,20.000,5.000,0.000,20.000,0.0021
GW,301,11,-5.000,0.000,20.000,0.000,0.000,29.000,0.0021
GW,302,11,5.000,0.000,20.000,0.000,0.000,29.000,0.0021
GW,303,13,-6.000,0.000,20.000,6.000,0.000,20.000,0.0021
GW,304,11,-6.000,0.000,20.000,0.000,0.000,29.000,0.0021
GW,305,11,6.000,0.000,20.000,0.000,0.000,29.000,0.0021
GW,306,15,-7.000,0.000,20.000,7.000,0.000,20.000,0.0021
GW,307,12,-7.000,0.000,20.000,0.000,0.000,29.000,0.0021
GW,308,12,7.000,0.000,20.000,0.000,0.000,29.000,0.0021
GW,309,17,-8.000,0.000,20.000,8.000,0.000,20.000,0.0021
GW,310,12,-8.000,0.000,20.000,0.000,0.000,29.000,0.0021
GW,311,12,8.000,0.000,20.000,0.000,0.000,29.000,0.0021
GW,312,11,-5.000,0.000,20.000,5.000,0.000,20.000,0.0021
GW,313,12,-5.000,0.000,20.000,0.000,0.000,30.000,0.0021
GW,314,12,5.000,0.000,20.000,0.000,0.000,30.000,0.0021
GW,315,13,-6.000,0.000,20.000,6.000,0.000,20.000,0.0021
GW,316,12,-6.000,0.000,20.000,0.000,0.000,30.000,0.0021
GW,317,12,6.000,0.000,20.000,0.000,0.000,30.000,0.0021
GW,318,15,-7.000,0.000,20.000,7.000,0.000,20.000,0.0021
GW,319,13,-7.000,0.000,20.000,0.000,0.000,30.000,0.0021
GW,320,13,7.000,0.000,20.000,0.000,0.000,30.000,0.0021
GW,321,17,-8.000,0.000,20.000,8.000,0.000,20.000,0.0021
GW,322,13,-8.000,0.000,20.000,0.000,0.000,30.000,0.0021
GW,323,13,8.000,0.000,20.000,0.000,0.000,30.000,0.0021
GE,1
GN,2,0,0,0,4.0000,0.0030
EX,0,0,6,0,1.0000,0.0000,0
FR,0,1,0,0,7.1500,1.0000
EK
RP,0,1,1,1000,0,0,5,5
EN
