GW,0,11,-2.500,0.000,10.000,2.500,0.000,10.000,0.0021
GW,1,16,-2.500,0.000,10.000,0.000,0.000,3.000,0.0021
GW,2,16,2.500,0.000,10.000,0.000,0.000,3.000,0.0021
GW,3,13,-3.000,0.000,10.000,3.000,0.000,10.000,0.0021
GW,4,16,-3.000,0.000,10.000,0.000,0.000,3.000,0.0021
GW,5,16,3.000,0.000,10.000,0.000,0.000,3.000,0.0021
GW,6,15,-3.500,0.000,10.000,3.500,0.000,10.000,0.0021
GW,7,16,-3.500,0.000,10.000,0.000,0.000,3.000,0.0021
GW,8,16,3.500,0.000,10.000,0.000,0.000,3.000,0.0021
GW,9,17,-4.000,0.000,10.000,4.000,0.000,10.000,0.0021
GW,10,17,-4.000,0.000,10.000,0.000,0.000,3.000,0.0021
GW,11,17,4.000,0.000,10.000,0.000,0.000,3.000,0.0021
GW,12,11,-2.500,0.000,10.000,2.500,0.000,10.000,0.0021
GW,13,15,-2.500,0.000,10.000,0.000,0.000,3.500,0.0021
GW,14,15,2.500,0.000,10.000,0.000,0.000,3.500,0.0021
GW,15,13,-3.000,0.000,10.000,3.000,0.000,10.000,0.0021
GW,16,15,-3.000,0.000,10.000,0.000,0.000,3.500,0.0021
GW,17,15,3.000,0.000,10.000,0.000,0.000,3.500,0.0021
GW,18,15,-3.500,0.000,10.000,3.500,0.000,10.000,0.0021
GW,19,15,-3.500,0.000,10.000,0.000,0.000,3.500,0.0021
GW,20,15,3.500,0.000,10.000,0.000,0.000,3.500,0.0021
GW,21,17,-4.000,0.000,10.000,4.000,0.000,10.000,0.0021
GW,22,16,-4.000,0.000,10.000,0.000,0.000,3.500,0.0021
GW,23,16,4.000,0.000,10.000,0.000,0.000,3.500,0.0021
GW,24,11,-2.500,0.000,10.000,2.500,0.000,10.000,0.0021
GW,25,14,-2.500,0.000,10.000,0.000,0.000,4.000,0.0021
GW,26,14,2.500,0.000,10.000,0.000,0.000,4.000,0.0021
GW,27,13,-3.000,0.000,10.000,3.000,0.000,10.000,0.0021
GW,28,14,-3.000,0.000,10.000,0.000,0.000,4.000,0.0021
GW,29,14,3.000,0.000,10.000,0.000,0.000,4.000,0.0021
GW,30,15,-3.500,0.000,10.000,3.500,0.000,10.000,0.0021
GW,31,14,-3.500,0.000,10.000,0.000,0.000,4.000,0.0021
GW,32,14,3.500,0.000,10.000,0.000,0.000,4.000,0.0021
GW,33,17,-4.000,0.000,10.000,4.000,0.000,10.000,0.0021
GW,34,15,-4.000,0.000,10.000,0.000,0.000,4.000,0.0021
GW,35,15,4.000,0.000,10.000,0.000,0.000,4.000,0.0021
GW,36,11,-2.500,0.000,10.000,2.500,0.000,10.000,0.0021
GW,37,13,-2.500,0.000,10.000,0.000,0.000,4.500,0.0021
GW,38,13,2.500,0.000,10.000,0.000,0.000,4.500,0.0021
GW,39,13,-3.000,0.000,10.000,3.000,0.000,10.000,0.0021
GW,40,13,-3.000,0.000,10.000,0.000,0.000,4.500,0.0021
GW,41,13,3.000,0.000,10.000,0.000,0.000,4.500,0.0021
GW,42,15,-3.500,0.000,10.000,3.500,0.000,10.000,0.0021
GW,43,13,-3.500,0.000,10.000,0.000,0.000,4.500,0.0021
GW,44,13,3.500,0.000,10.000,0.000,0.000,4.500,0.0021
GW,45,17,-4.000,0.000,10.000,4.000,0.000,10.000,0.0021
GW,46,14,-4.000,0.000,10.000,0.000,0.000,4.500,0.0021
GW,47,14,4.000,0.000,10.000,0.000,0.000,4.500,0.0021
GW,48,11,-2.500,0.000,10.000,2.500,0.000,10.000,0.0021
GW,49,12,-2.500,0.000,10.000,0.000,0.000,5.000,0.0021
GW,50,12,2.500,0.000,10.000,0.000,0.000,5.000,0.0021
GW,51,13,-3.000,0.000,10.000,3.000,0.000,10.000,0.0021
GW,52,12,-3.000,0.000,10.000,0.000,0.000,5.000,0.0021
GW,53,12,3.000,0.000,10.000,0.000,0.000,5.000,0.0021
GW,54,15,-3.500,0.000,10.000,3.500,0.000,10.000,0.0021
GW,55,13,-3.500,0.000,10.000,0.000,0.000,5.000,0.0021
GW,56,13,3.500,0.000,10.000,0.000,0.000,5.000,0.0021
GW,57,17,-4.000,0.000,10.000,4.000,0.000,10.000,0.0021
GW,58,13,-4.000,0.000,10.000,0.000,0.000,5.000,0.0021
GW,59,13,4.000,0.000,10.000,0.000,0.000,5.000,0.0021
GW,60,11,-2.500,0.000,10.000,2.500,0.000,10.000,0.0021
GW,61,11,-2.500,0.000,10.000,0.000,0.000,5.500,0.0021
GW,62,11,2.500,0.000,10.000,0.000,0.000,5.500,0.0021
GW,63,13,-3.000,0.000,10.000,3.000,0.000,10.000,0.0021
GW,64,11,-3.000,0.000,10.000,0.000,0.000,5.500,0.0021
GW,65,11,3.000,0.000,10.000,0.000,0.000,5.500,0.0021
GW,66,15,-3.500,0.000,10.000,3.500,0.000,10.000,0.0021
GW,67,12,-3.500,0.000,10.000,0.000,0.000,5.500,0.0021
GW,68,12,3.500,0.000,10.000,0.000,0.000,5.500,0.0021
GW,69,17,-4.000,0.000,10.000,4.000,0.000,10.000,0.0021
GW,70,12,-4.000,0.000,10.000,0.000,0.000,5.500,0.0021
GW,71,12,4.000,0.000,10.000,0.000,0.000,5.500,0.0021
GW,72,11,-2.500,0.000,10.000,2.500,0.000,10.000,0.0021
GW,73,10,-2.500,0.000,10.000,0.000,0.000,6.000,0.0021
GW,74,10,2.500,0.000,10.000,0.000,0.000,6.000,0.0021
GW,75,13,-3.000,0.000,10.000,3.000,0.000,10.000,0.0021
GW,76,10,-3.000,0.000,10.000,0.000,0.000,6.000,0.0021
GW,77,10,3.000,0.000,10.000,0.000,0.000,6.000,0.0021
GW,78,15,-3.500,0.000,10.000,3.500,0.000,10.000,0.0021
GW,79,11,-3.500,0.000,10.000,0.000,0.000,6.000,0.0021
GW,80,11,3.500,0.000,10.000,0.000,0.000,6.000,0.0021
GW,81,17,-4.000,0.000,10.000,4.000,0.000,10.000,0.0021
GW,82,12,-4.000,0.000,10.000,0.000,0.000,6.000,0.0021
GW,83,12,4.000,0.000,10.000,0.000,0.000,6.000,0.0021
GW,84,11,-2.500,0.000,10.000,2.500,0.000,10.000,0.0021
GW,85,9,-2.500,0.000,10.000,0.000,0.000,6.500,0.0021
GW,86,9,2.500,0.000,10.000,0.000,0.000,6.500,0.0021
GW,87,13,-3.000,0.000,10.000,3.000,0.000,10.000,0.0021
GW,88,9,-3.000,0.000,10.000,0.000,0.000,6.500,0.0021
GW,89,9,3.000,0.000,10.000,0.000,0.000,6.500,0.0021
GW,90,15,-3.500,0.000,10.000,3.500,0.000,10.000,0.0021
GW,91,10,-3.500,0.000,10.000,0.000,0.000,6.500,0.0021
GW,92,10,3.500,0.000,10.000,0.000,0.000,6.500,0.0021
GW,93,17,-4.000,0.000,10.000,4.000,0.000,10.000,0.0021
GW,94,11,-4.000,0.000,10.000,0.000,0.000,6.500,0.0021
GW,95,11,4.000,0.000,10.000,0.000,0.000,6.500,0.0021
GW,96,11,-2.500,0.000,10.000,2.500,0.000,10.000,0.0021
GW,97,8,-2.500,0.000,10.000,0.000,0.000,7.000,0.0021
GW,98,8,2.500,0.000,10.000,0.000,0.000,7.000,0.0021
GW,99,13,-3.000,0.000,10.000,3.000,0.000,10.000,0.0021
GW,100,9,-3.000,0.000,10.000,0.000,0.000,7.000,0.0021
GW,101,9,3.000,0.000,10.000,0.000,0.000,7.000,0.0021
GW,102,15,-3.500,0.000,10.000,3.500,0.000,10.000,0.0021
GW,103,9,-3.500,0.000,10.000,0.000,0.000,7.000,0.0021
GW,104,9,3.500,0.000,10.000,0.000,0.000,7.000,0.0021
GW,105,17,-4.000,0.000,10.000,4.000,0.000,10.000,0.0021
GW,106,10,-4.000,0.000,10.000,0.000,0.000,7.000,0.0021
GW,107,10,4.000,0.000,10.000,0.000,0.000,7.000,0.0021
GW,108,11,-2.500,0.000,10.000,2.500,0.000,10.000,0.0021
GW,109,7,-2.500,0.000,10.000,0.000,0.000,7.500,0.0021
GW,110,7,2.500,0.000,10.000,0.000,0.000,7.500,0.0021
GW,111,13,-3.000,0.000,10.000,3.000,0.000,10.000,0.0021
GW,112,8,-3.000,0.000,10.000,0.000,0.000,7.500,0.0021
GW,113,8,3.000,0.000,10.000,0.000,0.000,7.500,0.0021
GW,114,15,-3.500,0.000,10.000,3.500,0.000,10.000,0.0021
GW,115,9,-3.500,0.000,10.000,0.000,0.000,7.500,0.0021
GW,116,9,3.500,0.000,10.000,0.000,0.000,7.500,0.0021
GW,117,17,-4.000,0.000,10.000,4.000,0.000,10.000,0.0021
GW,118,10,-4.000,0.000,10.000,0.000,0.000,7.500,0.0021
GW,119,10,4.000,0.000,10.000,0.000,0.000,7.500,0.0021
GW,120,11,-2.500,0.000,10.000,2.500,0.000,10.000,0.0021
GW,121,7,-2.500,0.000,10.000,0.000,0.000,8.000,0.0021
GW,122,7,2.500,0.000,10.000,0.000,0.000,8.000,0.0021
GW,123,13,-3.000,0.000,10.000,3.000,0.000,10.000,0.0021
GW,124,7,-3.000,0.000,10.000,0.000,0.000,8.000,0.0021
GW,125,7,3.000,0.000,10.000,0.000,0.000,8.000,0.0021
GW,126,15,-3.500,0.000,10.000,3.500,0.000,10.000,0.0021
GW,127,8,-3.500,0.000,10.000,0.000,0.000,8.000,0.0021
GW,128,8,3.500,0.000,10.000,0.000,0.000,8.000,0.0021
GW,129,17,-4.000,0.000,10.000,4.000,0.000,10.000,0.0021
GW,130,9,-4.000,0.000,10.000,0.000,0.000,8.000,0.0021
GW,131,9,4.000,0.000,10.000,0.000,0.000,8.000,0.0021
GW,132,11,-2.500,0.000,10.000,2.500,0.000,10.000,0.0021
GW,133,6,-2.500,0.000,10.000,0.000,0.000,8.500,0.0021
GW,134,6,2.500,0.000,10.000,0.000,0.000,8.500,0.0021
GW,135,13,-3.000,0.000,10.000,3.000,0.000,10.000,0.0021
GW,136,7,-3.000,0.000,10.000,0.000,0.000,8.500,0.0021
GW,137,7,3.000,0.000,10.000,0.000,0.000,8.500,0.0021
GW,138,15,-3.500,0.000,10.000,3.500,0.000,10.000,0.0021
GW,139,8,-3.500,0.000,10.000,0.000,0.000,8.500,0.0021
GW,140,8,3.500,0.000,10.000,0.000,0.000,8.500,0.0021
GW,141,17,-4.000,0.000,10.000,4.000,0.000,10.000,0.0021
GW,142,9,-4.000,0.000,10.000,0.000,0.000,8.500,0.0021
GW,143,9,4.000,0.000,10.000,0.000,0.000,8.500,0.0021
GW,144,11,-2.500,0.000,10.000,2.500,0.000,10.000,0.0021
GW,145,5,-2.500,0.000,10.000,0.000,0.000,9.000,0.0021
GW,146,5,2.500,0.000,10.000,0.000,0.000,9.000,0.0021
GW,147,13,-3.000,0.000,10.000,3.000,0.000,10.000,0.0021
GW,148,6,-3.000,0.000,10.000,0.000,0.000,9.000,0.0021
GW,149,6,3.000,0.000,10.000,0.000,0.000,9.000,0.0021
GW,150,15,-3.500,0.000,10.000,3.500,0.000,10.000,0.0021
GW,151,7,-3.500,0.000,10.000,0.000,0.000,9.000,0.0021
GW,152,7,3.500,0.000,10.000,0.000,0.000,9.000,0.0021
GW,153,17,-4.000,0.000,10.000,4.000,0.000,10.000,0.0021
GW,154,8,-4.000,0.000,10.000,0.000,0.000,9.000,0.0021
GW,155,8,4.000,0.000,10.000,0.000,0.000,9.000,0.0021
GW,156,11,-2.500,0.000,10.000,2.500,0.000,10.000,0.0021
GW,157,5,-2.500,0.000,10.000,0.000,0.000,9.500,0.0021
GW,158,5,2.500,0.000,10.000,0.000,0.000,9.500,0.0021
GW,159,13,-3.000,0.000,10.000,3.000,0.000,10.000,0.0021
GW,160,6,-3.000,0.000,10.000,0.000,0.000,9.500,0.0021
GW,161,6,3.000,0.000,10.000,0.000,0.000,9.500,0.0021
GW,162,15,-3.500,0.000,10.000,3.500,0.000,10.000,0.0021
GW,163,7,-3.500,0.000,10.000,0.000,0.000,9.500,0.0021
GW,164,7,3.500,0.000,10.000,0.000,0.000,9.500,0.0021
GW,165,17,-4.000,0.000,10.000,4.000,0.000,10.000,0.0021
GW,166,8,-4.000,0.000,10.000,0.000,0.000,9.500,0.0021
GW,167,8,4.000,0.000,10.000,0.000,0.000,9.500,0.0021
GW,168,11,-2.500,0.000,10.000,2.500,0.000,10.000,0.0021
GW,169,5,-2.500,0.000,10.000,0.000,0.000,10.500,0.0021
GW,170,5,2.500,0.000,10.000,0.000,0.000,10.500,0.0021
GW,171,13,-3.000,0.000,10.000,3.000,0.000,10.000,0.0021
GW,172,6,-3.000,0.000,10.000,0.000,0.000,10.500,0.0021
GW,173,6,3.000,0.000,10.000,0.000,0.000,10.500,0.0021
GW,174,15,-3.500,0.000,10.000,3.500,0.000,10.000,0.0021
GW,175,7,-3.500,0.000,10.000,0.000,0.000,10.500,0.0021
GW,176,7,3.500,0.000,10.000,0.000,0.000,10.500,0.0021
GW,177,17,-4.000,0.000,10.000,4.000,0.000,10.000,0.0021
GW,178,8,-4.000,0.000,10.000,0.000,0.000,10.500,0.0021
GW,179,8,4.000,0.000,10.000,0.000,0.000,10.500,0.0021
GW,180,11,-2.500,0.000,10.000,2.500,0.000,10.000,0.0021
GW,181,5,-2.500,0.000,10.000,0.000,0.000,11.000,0.0021
GW,182,5,2.500,0.000,10.000,0.000,0.000,11.000,0.0021
GW,183,13,-3.000,0.000,10.000,3.000,0.000,10.000,0.0021
GW,184,6,-3.000,0.000,10.000,0.000,0.000,11.000,0.0021
GW,185,6,3.000,0.000,10.000,0.000,0.000,11.000,0.0021
GW,186,15,-3.500,0.000,10.000,3.500,0.000,10.000,0.0021
GW,187,7,-3.500,0.000,10.000,0.000,0.000,11.000,0.0021
GW,188,7,3.500,0.000,10.000,0.000,0.000,11.000,0.0021
GW,189,17,-4.000,0.000,10.000,4.000,0.000,10.000,0.0021
GW,190,8,-4.000,0.000,10.000,0.000,0.000,11.000,0.0021
GW,191,8,4.000,0.000,10.000,0.000,0.000,11.000,0.0021
GW,192,11,-2.500,0.000,10.000,2.500,0.000,10.000,0.0021
GW,193,6,-2.500,0.000,10.000,0.000,0.000,11.500,0.0021
GW,194,6,2.500,0.000,10.000,0.000,0.000,11.500,0.0021
GW,195,13,-3.000,0.000,10.000,3.000,0.000,10.000,0.0021
GW,196,7,-3.000,0.000,10.000,0.000,0.000,11.500,0.0021
GW,197,7,3.000,0.000,10.000,0.000,0.000,11.500,0.0021
GW,198,15,-3.500,0.000,10.000,3.500,0.000,10.000,0.0021
GW,199,8,-3.500,0.000,10.000,0.000,0.000,11.500,0.0021
GW,200,8,3.500,0.000,10.000,0.000,0.000,11.500,0.0021
GW,201,17,-4.000,0.000,10.000,4.000,0.000,10.000,0.0021
GW,202,9,-4.000,0.000,10.000,0.000,0.000,11.500,0.0021
GW,203,9,4.000,0.000,10.000,0.000,0.000,11.500,0.0021
GW,204,11,-2.500,0.000,10.000,2.500,0.000,10.000,0.0021
GW,205,7,-2.500,0.000,10.000,0.000,0.000,12.000,0.0021
GW,206,7,2.500,0.000,10.000,0.000,0.000,12.000,0.0021
GW,207,13,-3.000,0.000,10.000,3.000,0.000,10.000,0.0021
GW,208,7,-3.000,0.000,10.000,0.000,0.000,12.000,0.0021
GW,209,7,3.000,0.000,10.000,0.000,0.000,12.000,0.0021
GW,210,15,-3.500,0.000,10.000,3.500,0.000,10.000,0.0021
GW,211,8,-3.500,0.000,10.000,0.000,0.000,12.000,0.0021
GW,212,8,3.500,0.000,10.000,0.000,0.000,12.000,0.0021
GW,213,17,-4.000,0.000,10.000,4.000,0.000,10.000,0.0021
GW,214,9,-4.000,0.000,10.000,0.000,0.000,12.000,0.0021
GW,215,9,4.000,0.000,10.000,0.000,0.000,12.000,0.0021
GW,216,11,-2.500,0.000,10.000,2.500,0.000,10.000,0.0021
GW,217,7,-2.500,0.000,10.000,0.000,0.000,12.500,0.0021
GW,218,7,2.500,0.000,10.000,0.000,0.000,12.500,0.0021
GW,219,13,-3.000,0.000,10.000,3.000,0.000,10.000,0.0021
GW,220,8,-3.000,0.000,10.000,0.000,0.000,12.500,0.0021
GW,221,8,3.000,0.000,10.000,0.000,0.000,12.500,0.0021
GW,222,15,-3.500,0.000,10.000,3.500,0.000,10.000,0.0021
GW,223,9,-3.500,0.000,10.000,0.000,0.000,12.500,0.0021
GW,224,9,3.500,0.000,10.000,0.000,0.000,12.500,0.0021
GW,225,17,-4.000,0.000,10.000,4.000,0.000,10.000,0.0021
GW,226,10,-4.000,0.000,10.000,0.000,0.000,12.500,0.0021
GW,227,10,4.000,0.000,10.000,0.000,0.000,12.500,0.0021
GW,228,11,-2.500,0.000,10.000,2.500,0.000,10.000,0.0021
GW,229,8,-2.500,0.000,10.000,0.000,0.000,13.000,0.0021
GW,230,8,2.500,0.000,10.000,0.000,0.000,13.000,0.0021
GW,231,13,-3.000,0.000,10.000,3.000,0.000,10.000,0.0021
GW,232,9,-3.000,0.000,10.000,0.000,0.000,13.000,0.0021
GW,233,9,3.000,0.000,10.000,0.000,0.000,13.000,0.0021
GW,234,15,-3.500,0.000,10.000,3.500,0.000,10.000,0.0021
GW,235,9,-3.500,0.000,10.000,0.000,0.000,13.000,0.0021
GW,236,9,3.500,0.000,10.000,0.000,0.000,13.000,0.0021
GW,237,17,-4.000,0.000,10.000,4.000,0.000,10.000,0.0021
GW,238,10,-4.000,0.000,10.000,0.000,0.000,13.000,0.0021
GW,239,10,4.000,0.000,10.000,0.000,0.000,13.000,0.0021
GW,240,11,-2.500,0.000,10.000,2.500,0.000,10.000,0.0021
GW,241,9,-2.500,0.000,10.000,0.000,0.000,13.500,0.0021
GW,242,9,2.500,0.000,10.000,0.000,0.000,13.500,0.0021
GW,243,13,-3.000,0.000,10.000,3.000,0.000,10.000,0.0021
GW,244,9,-3.000,0.000,10.000,0.000,0.000,13.500,0.0021
GW,245,9,3.000,0.000,10.000,0.000,0.000,13.500,0.0021
GW,246,15,-3.500,0.000,10.000,3.500,0.000,10.000,0.0021
GW,247,10,-3.500,0.000,10.000,0.000,0.000,13.500,0.0021
GW,248,10,3.500,0.000,10.000,0.000,0.000,13.500,0.0021
GW,249,17,-4.000,0.000,10.000,4.000,0.000,10.000,0.0021
GW,250,11,-4.000,0.000,10.000,0.000,0.000,13.500,0.0021
GW,251,11,4.000,0.000,10.000,0.000,0.000,13.500,0.0021
GW,252,11,-2.500,0.000,10.000,2.500,0.000,10.000,0.0021
GW,253,10,-2.500,0.000,10.000,0.000,0.000,14.000,0.0021
GW,254,10,2.500,0.000,10.000,0.000,0.000,14.000,0.0021
GW,255,13,-3.000,0.000,10.000,3.000,0.000,10.000,0.0021
GW,256,10,-3.000,0.000,10.000,0.000,0.000,14.000,0.0021
GW,257,10,3.000,0.000,10.000,0.000,0.000,14.000,0.0021
GW,258,15,-3.500,0.000,10.000,3.500,0.000,10.000,0.0021
GW,259,11,-3.500,0.000,10.000,0.000,0.000,14.000,0.0021
GW,260,11,3.500,0.000,10.000,0.000,0.000,14.000,0.0021
GW,261,17,-4.000,0.000,10.000,4.000,0.000,10.000,0.0021
GW,262,12,-4.000,0.000,10.000,0.000,0.000,14.000,0.0021
GW,263,12,4.000,0.000,10.000,0.000,0.000,14.000,0.0021
GW,264,11,-2.500,0.000,10.000,2.500,0.000,10.000,0.0021
GW,265,11,-2.500,0.000,10.000,0.000,0.000,14.500,0.0021
GW,266,11,2.500,0.000,10.000,0.000,0.000,14.500,0.0021
GW,267,13,-3.000,0.000,10.000,3.000,0.000,10.000,0.0021
GW,268,11,-3.000,0.000,10.000,0.000,0.000,14.500,0.0021
GW,269,11,3.000,0.000,10.000,0.000,0.000,14.500,0.0021
GW,270,15,-3.500,0.000,10.000,3.500,0.000,10.000,0.0021
GW,271,12,-3.500,0.000,10.000,0.000,0.000,14.500,0.0021
GW,272,12,3.500,0.000,10.000,0.000,0.000,14.500,0.0021
GW,273,17,-4.000,0.000,10.000,4.000,0.000,10.000,0.0021
GW,274,12,-4.000,0.000,10.000,0.000,0.000,14.500,0.0021
GW,275,12,4.000,0.000,10.000,0.000,0.000,14.500,0.0021
GW,276,11,-2.500,0.000,10.000,2.500,0.000,10.000,0.0021
GW,277,12,-2.500,0.000,10.000,0.000,0.000,15.000,0.0021
GW,278,12,2.500,0.000,10.000,0.000,0.000,15.000,0.0021
GW,279,13,-3.000,0.000,10.000,3.000,0.000,10.000,0.0021
GW,280,12,-3.000,0.000,10.000,0.000,0.000,15.000,0.0021
GW,281,12,3.000,0.000,10.000,0.000,0.000,15.000,0.0021
GW,282,15,-3.500,0.000,10.000,3.500,0.000,10.000,0.0021
GW,283,13,-3.500,0.000,10.000,0.000,0.000,15.000,0.0021
GW,284,13,3.500,0.000,10.000,0.000,0.000,15.000,0.0021
GW,285,17,-4.000,0.000,10.000,4.000,0.000,10.000,0.0021
GW,286,13,-4.000,0.000,10.000,0.000,0.000,15.000,0.0021
GW,287,13,4.000,0.000,10.000,0.000,0.000,15.000,0.0021
GW,288,11,-2.500,0.000,10.000,2.500,0.000,10.000,0.0021
GW,289,13,-2.500,0.000,10.000,0.000,0.000,15.500,0.0021
GW,290,13,2.500,0.000,10.000,0.000,0.000,15.500,0.0021
GW,291,13,-3.000,0.000,10.000,3.000,0.000,10.000,0.0021
GW,292,13,-3.000,0.000,10.000,0.000,0.000,15.500,0.0021
GW,293,13,3.000,0.000,10.000,0.000,0.000,15.500,0.0021
GW,294,15,-3.500,0.000,10.000,3.500,0.000,10.000,0.0021
GW,295,13,-3.500,0.000,10.000,0.000,0.000,15.500,0.0021
GW,296,13,3.500,0.000,10.000,0.000,0.000,15.500,0.0021
GW,297,17,-4.000,0.000,10.000,4.000,0.000,10.000,0.0021
GW,298,14,-4.000,0.000,10.000,0.000,0.000,15.500,0.0021
GW,299,14,4.000,0.000,10.000,0.000,0.000,15.500,0.0021
GW,300,11,-2.500,0.000,10.000,2.500,0.000,10.000,0.0021
GW,301,14,-2.500,0.000,10.000,0.000,0.000,16.000,0.0021
GW,302,14,2.500,0.000,10.000,0.000,0.000,16.000,0.0021
GW,303,13,-3.000,0.000,10.000,3.000,0.000,10.000,0.0021
GW,304,14,-3.000,0.000,10.000,0.000,0.000,16.000,0.0021
GW,305,14,3.000,0.000,10.000,0.000,0.000,16.000,0.0021
GW,306,15,-3.500,0.000,10.000,3.500,0.000,10.000,0.0021
GW,307,14,-3.500,0.000,10.000,0.000,0.000,16.000,0.0021
GW,308,14,3.500,0.000,10.000,0.000,0.000,16.000,0.0021
GW,309,17,-4.000,0.000,10.000,4.000,0.000,10.000,0.0021
GW,310,15,-4.000,0.000,10.000,0.000,0.000,16.000,0.0021
GW,311,15,4.000,0.000,10.000,0.000,0.000,16.000,0.0021
GW,312,11,-2.500,0.000,10.000,2.500,0.000,10.000,0.0021
GW,313,15,-2.500,0.000,10.000,0.000,0.000,16.500,0.0021
GW,314,15,2.500,0.000,10.000,0.000,0.000,16.500,0.0021
GW,315,13,-3.000,0.000,10.000,3.000,0.000,10.000,0.0021
GW,316,15,-3.000,0.000,10.000,0.000,0.000,16.500,0.0021
GW,317,15,3.000,0.000,10.000,0.000,0.000,16.500,0.0021
GW,318,15,-3.500,0.000,10.000,3.500,0.000,10.000,0.0021
GW,319,15,-3.500,0.000,10.000,0.000,0.000,16.500,0.0021
GW,320,15,3.500,0.000,10.000,0.000,0.000,16.500,0.0021
GW,321,17,-4.000,0.000,10.000,4.000,0.000,10.000,0.0021
GW,322,16,-4.000,0.000,10.000,0.000,0.000,16.500,0.0021
GW,323,16,4.000,0.000,10.000,0.000,0.000,16.500,0.0021
GW,324,11,-2.500,0.000,10.000,2.500,0.000,10.000,0.0021
GW,325,16,-2.500,0.000,10.000,0.000,0.000,17.000,0.0021
GW,326,16,2.500,0.000,10.000,0.000,0.000,17.000,0.0021
GW,327,13,-3.000,0.000,10.000,3.000,0.000,10.000,0.0021
GW,328,16,-3.000,0.000,10.000,0.000,0.000,17.000,0.0021
GW,329,16,3.000,0.000,10.000,0.000,0.000,17.000,0.0021
GW,330,15,-3.500,0.000,10.000,3.500,0.000,10.000,0.0021
GW,331,16,-3.500,0.000,10.000,0.000,0.000,17.000,0.0021
GW,332,16,3.500,0.000,10.000,0.000,0.000,17.000,0.0021
GW,333,17,-4.000,0.000,10.000,4.000,0.000,10.000,0.0021
GW,334,17,-4.000,0.000,10.000,0.000,0.000,17.000,0.0021
GW,335,17,4.000,0.000,10.000,0.000,0.000,17.000,0.0021
GW,336,11,-2.500,0.000,10.000,2.500,0.000,10.000,0.0021
GW,337,17,-2.500,0.000,10.000,0.000,0.000,17.500,0.0021
GW,338,17,2.500,0.000,10.000,0.000,0.000,17.500,0.0021
GW,339,13,-3.000,0.000,10.000,3.000,0.000,10.000,0.0021
GW,340,17,-3.000,0.000,10.000,0.000,0.000,17.500,0.0021
GW,341,17,3.000,0.000,10.000,0.000,0.000,17.500,0.0021
GW,342,15,-3.500,0.000,10.000,3.500,0.000,10.000,0.0021
GW,343,17,-3.500,0.000,10.000,0.000,0.000,17.500,0.0021
GW,344,17,3.500,0.000,10.000,0.000,0.000,17.500,0.0021
GW,345,17,-4.000,0.000,10.000,4.000,0.000,10.000,0.0021
GW,346,18,-4.000,0.000,10.000,0.000,0.000,17.500,0.0021
GW,347,18,4.000,0.000,10.000,0.000,0.000,17.500,0.0021
GW,348,11,-2.500,0.000,10.000,2.500,0.000,10.000,0.0021
GW,349,18,-2.500,0.000,10.000,0.000,0.000,18.000,0.0021
GW,350,18,2.500,0.000,10.000,0.000,0.000,18.000,0.0021
GW,351,13,-3.000,0.000,10.000,3.000,0.000,10.000,0.0021
GW,352,18,-3.000,0.000,10.000,0.000,0.000,18.000,0.0021
GW,353,18,3.000,0.000,10.000,0.000,0.000,18.000,0.0021
GW,354,15,-3.500,0.000,10.000,3.500,0.000,10.000,0.0021
GW,355,18,-3.500,0.000,10.000,0.000,0.000,18.000,0.0021
GW,356,18,3.500,0.000,10.000,0.000,0.000,18.000,0.0021
GW,357,17,-4.000,0.000,10.000,4.000,0.000,10.000,0.0021
GW,358,19,-4.000,0.000,10.000,0.000,0.000,18.000,0.0021
GW,359,19,4.000,0.000,10.000,0.000,0.000,18.000,0.0021
GW,360,11,-2.500,0.000,10.000,2.500,0.000,10.000,0.0021
GW,361,19,-2.500,0.000,10.000,0.000,0.000,18.500,0.0021
GW,362,19,2.500,0.000,10.000,0.000,0.000,18.500,0.0021
GW,363,13,-3.000,0.000,10.000,3.000,0.000,10.000,0.0021
GW,364,19,-3.000,0.000,10.000,0.000,0.000,18.500,0.0021
GW,365,19,3.000,0.000,10.000,0.000,0.000,18.500,0.0021
GW,366,15,-3.500,0.000,10.000,3.500,0.000,10.000,0.0021
GW,367,19,-3.500,0.000,10.000,0.000,0.000,18.500,0.0021
GW,368,19,3.500,0.000,10.000,0.000,0.000,18.500,0.0021
GW,369,17,-4.000,0.000,10.000,4.000,0.000,10.000,0.0021
GW,370,19,-4.000,0.000,10.000,0.000,0.000,18.500,0.0021
GW,371,19,4.000,0.000,10.000,0.000,0.000,18.500,0.0021
GW,372,11,-2.500,0.000,10.000,2.500,0.000,10.000,0.0021
GW,373,20,-2.500,0.000,10.000,0.000,0.000,19.000,0.0021
GW,374,20,2.500,0.000,10.000,0.000,0.000,19.000,0.0021
GW,375,13,-3.000,0.000,10.000,3.000,0.000,10.000,0.0021
GW,376,20,-3.000,0.000,10.000,0.000,0.000,19.000,0.0021
GW,377,20,3.000,0.000,10.000,0.000,0.000,19.000,0.0021
GW,378,15,-3.500,0.000,10.000,3.500,0.000,10.000,0.0021
GW,379,20,-3.500,0.000,10.000,0.000,0.000,19.000,0.0021
GW,380,20,3.500,0.000,10.000,0.000,0.000,19.000,0.0021
GW,381,17,-4.000,0.000,10.000,4.000,0.000,10.000,0.0021
GW,382,20,-4.000,0.000,10.000,0.000,0.000,19.000,0.0021
GW,383,20,4.000,0.000,10.000,0.000,0.000,19.000,0.0021
GW,384,11,-2.500,0.000,10.000,2.500,0.000,10.000,0.0021
GW,385,21,-2.500,0.000,10.000,0.000,0.000,19.500,0.0021
GW,386,21,2.500,0.000,10.000,0.000,0.000,19.500,0.0021
GW,387,13,-3.000,0.000,10.000,3.000,0.000,10.000,0.0021
GW,388,21,-3.000,0.000,10.000,0.000,0.000,19.500,0.0021
GW,389,21,3.000,0.000,10.000,0.000,0.000,19.500,0.0021
GW,390,15,-3.500,0.000,10.000,3.500,0.000,10.000,0.0021
GW,391,21,-3.500,0.000,10.000,0.000,0.000,19.500,0.0021
GW,392,21,3.500,0.000,10.000,0.000,0.000,19.500,0.0021
GW,393,17,-4.000,0.000,10.000,4.000,0.000,10.000,0.0021
GW,394,21,-4.000,0.000,10.000,0.000,0.000,19.500,0.0021
GW,395,21,4.000,0.000,10.000,0.000,0.000,19.500,0.0021
GW,396,11,-2.500,0.000,10.000,2.500,0.000,10.000,0.0021
GW,397,22,-2.500,0.000,10.000,0.000,0.000,20.000,0.0021
GW,398,22,2.500,0.000,10.000,0.000,0.000,20.000,0.0021
GW,399,13,-3.000,0.000,10.000,3.000,0.000,10.000,0.0021
GW,400,22,-3.000,0.000,10.000,0.000,0.000,20.000,0.0021
GW,401,22,3.000,0.000,10.000,0.000,0.000,20.000,0.0021
GW,402,15,-3.500,0.000,10.000,3.500,0.000,10.000,0.0021
GW,403,22,-3.500,0.000,10.000,0.000,0.000,20.000,0.0021
GW,404,22,3.500,0.000,10.000,0.000,0.000,20.000,0.0021
GW,405,17,-4.000,0.000,10.000,4.000,0.000,10.000,0.0021
GW,406,22,-4.000,0.000,10.000,0.000,0.000,20.000,0.0021
GW,407,22,4.000,0.000,10.000,0.000,0.000,20.000,0.0021
GE,1
GN,2,0,0,0,4.0000,0.0030
EX,0,0,6,0,1.0000,0.0000,0
FR,0,1,0,0,14.1750,1.0000
EK
RP,0,1,1,1000,0,0,5,5
EN
