GW	0	1	0	0	4	1	0	4	0.0021
GW	1	1	1	0	4	2	0	4	0.0021
GW	2	1	2	0	4	3	0	4	0.0021
GW	3	1	3	0	4	4	0	4	0.0021
GW	4	1	4	0	4	5	0	4	0.0021
GW	5	1	5	0	4	6	0	4	0.0021
GW	6	1	6	0	4	7	0	4	0.0021
GW	7	1	7	0	4	8	0	4	0.0021
GW	8	1	8	0	4	9	0	4	0.0021
GW	9	1	9	0	4	10	0	4	0.0021
GE	1
GN	2	0	0	0	15.0000	0.002
EK
EX	0	1	1	0	1.0000	0	0
FR	0	8	0	0	28.85	0.2125
RP	0	19	73	1000	0	0	5	5		
EN
