CM 
CE
SY Z2MA=3
SY Z2MB=2
GW	1	3	0	0	3	0	0	3.1651	.0021
GW	2	9	0	0	3.1651	0	0	Z2MA	.0021
GW	3	9	0	0	3	0	0	Z2MB	.0021
GW	4	3	0	0	3.1651	.05	0	3.1651	.0021
GW	5	3	0	0	3	.05	0	3	.0021
GW	6	3	.05	0	3.1651	.05	0	3.4151	.0021
GW	7	3	.05	0	3	.05	0	2.75	.0021
GE	1
GN	2	0	0	0	4	0.003
EK
EX	0	1	2	0	1	0	0
FR	0	0	0	0	146.0	0
EN
