CE
GW	1	3	0	0	118.11	0	0	124.61	0.08267717
GW	2	1	0	0	124.61	0	0	132.48	0.08267717
GW	3	21	0	0	118.11	0	0	110.24	3.93701e-8
GW	4	45	0	0	110	0	0	92.5	3.93701e-8
GS	0	0	0.0254		' All in in.
GE	0
EK
LD	0	4	45	45	0	1.e-7
EX	0	1	2	0	1	0
GN	2	0	0	0	4	0.003
FR	0	1	0	0	146	0
