CM 
CE
SY Length1=0.152827
SY Length2=0.25
GW	1	1	0	0	2.91745	0	0	3.08255	.0021
GW	2	5	0	0	3.08255	0	0	3.08255+Length1	.0021
GW	3	5	0	0	2.91745	0	0	2.91745-Length1	.0021
GW	4	9	0	0	3.08255+Length1	0	0	3.08255+Length1+Length2	.0021
GW	5	9	0	0	2.91745-Length1	0	0	2.91745-Length1-Length2	.0021
GE	1
LD	0	2	4	4	0.000001	0.000000100	0.0000000000119
LD	0	3	4	4	0.000001	0.000000100	0.0000000000119
GN	2	0	0	0	4	0.003
EK
EX	0	1	2	0	1	0	0





FR	0	0	0	0	444	0
EN
