CM 
CE
GW	1	3	0	0	114.860236	0	0	121.360236	0.08267717
GW	2	1	0	0	121.360236	0	0	123.25	0.08267717
GW	3	1	0	0	114.860236	0	0	113	0.08267717
GW	4	1	0	0	123.25	0	0	125	0.08267717
GW	5	1	0	0	113	0	0	111.25	0.08267717
GS	0	0	0.0254
GE	-1
LD	1	2	1	1	0	0.1	0.000001
LD	1	3	1	1	0	0.1	.000001
GN	2	0	0	0	4	0.003
EK
EX	0	1	2	0	1	0	0	0

FR	0	0	0	0	146	0
EN
