GW,0,2,0.000,0.000,3.000,0.100,0.000,3.000,0.0021
GW,1,2,0.000,0.000,3.000,0.000,0.000,3.100,0.0021
GW,3,2,0.000,0.000,3.100,0.000,0.000,3.200,0.0021
GW,5,2,0.000,0.000,3.200,0.000,0.000,3.300,0.0021
GW,16,2,0.100,0.000,3.000,0.200,0.000,3.000,0.0021
GW,32,2,0.200,0.000,3.000,0.300,0.000,3.000,0.0021
GW,48,2,0.300,0.000,3.000,0.400,0.000,3.000,0.0021
GW,64,2,0.400,0.000,3.000,0.500,0.000,3.000,0.0021
GW	49	2	0.3	0	3	.3	0	3.1	0.0021
GW,80,2,0.500,0.000,3.000,0.600,0.000,3.000,0.0021
GW,96,2,0.600,0.000,3.000,0.700,0.000,3.000,0.0021
GE,1
GN,2,0,0,0,4.0000,0.0030
EX,0,32,1,0,1.0000,0.0000,0
FR,0,6,0,0,144.0000,0.8000
EK
RP,0,19,73,1000,0,0,5,5
EN
